HF                                                                              
OMFMANAGER11049813203D                 0.00000
File generated by Oxford Molecular Ltd
  4  3  0  0  0  0  0  0  0  0  1 V2000
   30.6981   43.4366   50.3727 N   0  0  0  0  0  0
   29.3142   42.7840   51.5058 I   0  0  0  0  0  0
   31.5559   44.7088   51.5000 I   0  0  0  0  0  0
   29.7168   44.5785   49.2068 I   0  0  0  0  0  0
  1  2  1  0  0  0  0
  1  3  1  0  0  0  0
  1  4  1  0  0  0  0
M  END
$$$$
